(Ra)-BINAP
     RDKit          3D

 78 85  0  0  0  0  0  0  0  0999 V2000
   -3.2417    1.0971   -5.4049 C   0  0  0  0  0  0  0  0  0  0  0  0
   -1.8067    0.4856   -5.0248 C   0  0  0  0  0  0  0  0  0  0  0  0
   -1.3951    0.2900   -3.4768 C   0  0  0  0  0  0  0  0  0  0  0  0
   -2.4165    0.6772   -2.2783 C   0  0  0  0  0  0  0  0  0  0  0  0
   -1.8424    0.4853   -0.2672 P   0  0  0  0  0  0  0  0  0  0  0  0
   -3.5911   -0.0173    0.7887 C   0  0  0  0  0  0  0  0  0  0  0  0
   -3.7972    0.6351    2.2593 C   0  0  0  0  0  0  0  0  0  0  0  0
   -5.1004    0.2970    3.1473 C   0  0  0  0  0  0  0  0  0  0  0  0
   -6.2244   -0.6983    2.5775 C   0  0  0  0  0  0  0  0  0  0  0  0
   -6.0442   -1.3543    1.1220 C   0  0  0  0  0  0  0  0  0  0  0  0
   -4.7379   -1.0166    0.2363 C   0  0  0  0  0  0  0  0  0  0  0  0
   -0.7688   -1.3551   -0.1610 C   0  0  0  0  0  0  0  0  0  0  0  0
   -1.2813   -2.6530   -0.9828 C   0  0  0  0  0  0  0  0  0  0  0  0
   -0.4998   -4.0573   -0.9057 C   0  0  0  0  0  0  0  0  0  0  0  0
    0.8222   -4.2233    0.0010 C   0  0  0  0  0  0  0  0  0  0  0  0
    1.5849   -5.6538    0.0611 C   0  0  0  0  0  0  0  0  0  0  0  0
    2.9052   -5.8532    0.9566 C   0  0  0  0  0  0  0  0  0  0  0  0
    3.4779   -4.6232    1.8051 C   0  0  0  0  0  0  0  0  0  0  0  0
    2.7290   -3.1964    1.7543 C   0  0  0  0  0  0  0  0  0  0  0  0
    1.3863   -2.9491    0.8526 C   0  0  0  0  0  0  0  0  0  0  0  0
    0.5889   -1.4971    0.7624 C   0  0  0  0  0  0  0  0  0  0  0  0
    1.1971   -0.1393    1.6417 C   0  0  0  0  0  0  0  0  0  0  0  0
    2.2562    0.9076    0.9358 C   0  0  0  0  0  0  0  0  0  0  0  0
    2.9446    0.6010   -1.0600 P   0  0  0  0  0  0  0  0  0  0  0  0
    2.9905    2.5117   -1.9306 C   0  0  0  0  0  0  0  0  0  0  0  0
    4.1442    2.9284   -2.9906 C   0  0  0  0  0  0  0  0  0  0  0  0
    4.1470    4.3790   -3.6984 C   0  0  0  0  0  0  0  0  0  0  0  0
    2.9765    5.4317   -3.3819 C   0  0  0  0  0  0  0  0  0  0  0  0
    1.7967    5.0283   -2.3705 C   0  0  0  0  0  0  0  0  0  0  0  0
    1.7986    3.5781   -1.6627 C   0  0  0  0  0  0  0  0  0  0  0  0
    4.9514    0.0767   -0.7083 C   0  0  0  0  0  0  0  0  0  0  0  0
    5.3815   -1.4673   -0.9568 C   0  0  0  0  0  0  0  0  0  0  0  0
    6.8945   -1.9639   -0.7007 C   0  0  0  0  0  0  0  0  0  0  0  0
    8.0068   -0.9223   -0.1942 C   0  0  0  0  0  0  0  0  0  0  0  0
    7.6055    0.6132    0.0557 C   0  0  0  0  0  0  0  0  0  0  0  0
    6.0903    1.1074   -0.1987 C   0  0  0  0  0  0  0  0  0  0  0  0
    2.7761    2.1763    1.7976 C   0  0  0  0  0  0  0  0  0  0  0  0
    2.2859    2.4204    3.3105 C   0  0  0  0  0  0  0  0  0  0  0  0
    1.2612    1.4028    4.0259 C   0  0  0  0  0  0  0  0  0  0  0  0
    0.7896    1.6742    5.5541 C   0  0  0  0  0  0  0  0  0  0  0  0
   -0.2304    0.6781    6.2971 C   0  0  0  0  0  0  0  0  0  0  0  0
   -0.7901   -0.6041    5.5200 C   0  0  0  0  0  0  0  0  0  0  0  0
   -0.3288   -0.8853    4.0010 C   0  0  0  0  0  0  0  0  0  0  0  0
    0.7030    0.1051    3.2065 C   0  0  0  0  0  0  0  0  0  0  0  0
   -3.8402    1.3343   -2.6903 C   0  0  0  0  0  0  0  0  0  0  0  0
   -4.2563    1.5289   -4.2376 C   0  0  0  0  0  0  0  0  0  0  0  0
   -3.5601    1.2552   -6.6075 H   0  0  0  0  0  0  0  0  0  0  0  0
   -0.9960    0.1715   -5.9291 H   0  0  0  0  0  0  0  0  0  0  0  0
   -0.2509   -0.1619   -3.2227 H   0  0  0  0  0  0  0  0  0  0  0  0
   -2.9328    1.4132    2.7368 H   0  0  0  0  0  0  0  0  0  0  0  0
   -5.2303    0.8114    4.2838 H   0  0  0  0  0  0  0  0  0  0  0  0
   -7.2382   -0.9631    3.2665 H   0  0  0  0  0  0  0  0  0  0  0  0
   -6.9194   -2.1318    0.6716 H   0  0  0  0  0  0  0  0  0  0  0  0
   -4.6385   -1.5449   -0.8966 H   0  0  0  0  0  0  0  0  0  0  0  0
   -2.3012   -2.5929   -1.7107 H   0  0  0  0  0  0  0  0  0  0  0  0
   -0.9445   -5.0272   -1.5681 H   0  0  0  0  0  0  0  0  0  0  0  0
    1.1505   -6.6325   -0.5949 H   0  0  0  0  0  0  0  0  0  0  0  0
    3.4810   -6.9665    0.9912 H   0  0  0  0  0  0  0  0  0  0  0  0
    4.5075   -4.7619    2.5079 H   0  0  0  0  0  0  0  0  0  0  0  0
    3.2212   -2.2604    2.4331 H   0  0  0  0  0  0  0  0  0  0  0  0
    5.0583    2.1213   -3.2920 H   0  0  0  0  0  0  0  0  0  0  0  0
    5.0583    4.6768   -4.5072 H   0  0  0  0  0  0  0  0  0  0  0  0
    2.9726    6.5561   -3.9371 H   0  0  0  0  0  0  0  0  0  0  0  0
    0.8628    5.8331   -2.1385 H   0  0  0  0  0  0  0  0  0  0  0  0
    0.8403    3.2906   -0.9032 H   0  0  0  0  0  0  0  0  0  0  0  0
    4.5331   -2.3090   -1.3471 H   0  0  0  0  0  0  0  0  0  0  0  0
    7.1970   -3.1654   -0.8953 H   0  0  0  0  0  0  0  0  0  0  0  0
    9.1836   -1.3063    0.0062 H   0  0  0  0  0  0  0  0  0  0  0  0
    8.4705    1.4314    0.4506 H   0  0  0  0  0  0  0  0  0  0  0  0
    5.8201    2.3152    0.0028 H   0  0  0  0  0  0  0  0  0  0  0  0
    3.5716    3.0097    1.3012 H   0  0  0  0  0  0  0  0  0  0  0  0
    2.7222    3.4240    3.9267 H   0  0  0  0  0  0  0  0  0  0  0  0
    1.2190    2.6730    6.1828 H   0  0  0  0  0  0  0  0  0  0  0  0
   -0.5833    0.9037    7.4789 H   0  0  0  0  0  0  0  0  0  0  0  0
   -1.5872   -1.3904    6.0850 H   0  0  0  0  0  0  0  0  0  0  0  0
   -0.8009   -1.9016    3.4320 H   0  0  0  0  0  0  0  0  0  0  0  0
   -4.6478    1.7173   -1.8077 H   0  0  0  0  0  0  0  0  0  0  0  0
   -5.3688    2.0314   -4.5259 H   0  0  0  0  0  0  0  0  0  0  0  0
  1  2  2  0
  2  3  1  0
  3  4  2  0
  4  5  1  0
  5  6  1  0
  6  7  2  0
  7  8  1  0
  8  9  2  0
  9 10  1  0
 10 11  2  0
  5 12  1  0
 12 13  1  0
 13 14  2  0
 14 15  1  0
 15 16  2  0
 16 17  1  0
 17 18  2  0
 18 19  1  0
 19 20  2  0
 21 20  1  1
 21 22  1  0
 22 23  2  0
 23 24  1  0
 24 25  1  0
 25 26  2  0
 26 27  1  0
 27 28  2  0
 28 29  1  0
 29 30  2  0
 24 31  1  0
 31 32  2  0
 32 33  1  0
 33 34  2  0
 34 35  1  0
 35 36  2  0
 23 37  1  0
 37 38  2  0
 38 39  1  0
 39 40  2  0
 40 41  1  0
 41 42  2  0
 42 43  1  0
 43 44  2  0
  4 45  1  0
 45 46  2  0
 46  1  1  0
 11  6  1  0
 21 12  2  0
 44 22  1  0
 20 15  1  0
 30 25  1  0
 36 31  1  0
 44 39  1  0
  1 47  1  0
  2 48  1  0
  3 49  1  0
  7 50  1  0
  8 51  1  0
  9 52  1  0
 10 53  1  0
 11 54  1  0
 13 55  1  0
 14 56  1  0
 16 57  1  0
 17 58  1  0
 18 59  1  0
 19 60  1  0
 26 61  1  0
 27 62  1  0
 28 63  1  0
 29 64  1  0
 30 65  1  0
 32 66  1  0
 33 67  1  0
 34 68  1  0
 35 69  1  0
 36 70  1  0
 37 71  1  0
 38 72  1  0
 40 73  1  0
 41 74  1  0
 42 75  1  0
 43 76  1  0
 45 77  1  0
 46 78  1  0
M  END
>  <_CXSMILES_Data>  (1) 
|(-6.65619,-2.62348,;-6.57037,-1.12594,;-5.23055,-0.451485,;-3.97655,-1.27458,;-2.63673,-0.600128,;-2.55091,0.897415,;-1.21109,1.57186,;-1.12527,3.06941,;-2.37927,3.8925,;-3.71909,3.21805,;-3.80491,1.72051,;-1.38273,-1.42322,;-1.46855,-2.92076,;-0.214548,-3.74386,;1.12527,-3.06941,;2.37927,-3.8925,;3.71909,-3.21805,;3.80491,-1.72051,;2.55091,-0.897415,;1.21109,-1.57186,;-0.0429096,-0.748772,;0.0429096,0.748772,;1.38273,1.42322,;2.63673,0.600128,;3.97655,1.27458,;5.23055,0.451485,;6.57037,1.12594,;6.65619,2.62348,;5.40219,3.44657,;4.06237,2.77212,;2.55091,-0.897415,;1.21109,-1.57186,;1.12527,-3.06941,;2.37927,-3.8925,;3.71909,-3.21805,;3.80491,-1.72051,;1.46855,2.92076,;0.214548,3.74386,;-1.12527,3.06941,;-2.37927,3.8925,;-3.71909,3.21805,;-3.80491,1.72051,;-2.55091,0.897415,;-1.21109,1.57186,;-4.06237,-2.77212,;-5.40219,-3.44657,),wU:20.21|

>  <SMILES>  (1) 
c1ccc(P(c2ccccc2)c2ccc3ccccc3c2-c2c(P(c3ccccc3)c3ccccc3)ccc3ccccc23)cc1 |(-6.65619,-2.62348,;-6.57037,-1.12594,;-5.23055,-0.451485,;-3.97655,-1.27458,;-2.63673,-0.600128,;-2.55091,0.897415,;-1.21109,1.57186,;-1.12527,3.06941,;-2.37927,3.8925,;-3.71909,3.21805,;-3.80491,1.72051,;-1.38273,-1.42322,;-1.46855,-2.92076,;-0.214548,-3.74386,;1.12527,-3.06941,;2.37927,-3.8925,;3.71909,-3.21805,;3.80491,-1.72051,;2.55091,-0.897415,;1.21109,-1.57186,;-0.0429096,-0.748772,;0.0429096,0.748772,;1.38273,1.42322,;2.63673,0.600128,;3.97655,1.27458,;5.23055,0.451485,;6.57037,1.12594,;6.65619,2.62348,;5.40219,3.44657,;4.06237,2.77212,;2.55091,-0.897415,;1.21109,-1.57186,;1.12527,-3.06941,;2.37927,-3.8925,;3.71909,-3.21805,;3.80491,-1.72051,;1.46855,2.92076,;0.214548,3.74386,;-1.12527,3.06941,;-2.37927,3.8925,;-3.71909,3.21805,;-3.80491,1.72051,;-2.55091,0.897415,;-1.21109,1.57186,;-4.06237,-2.77212,;-5.40219,-3.44657,),wU:20.21|

>  <NAME>  (1) 
(Ra)-BINAP

$$$$
